# created with PyMOL 3.1.6.1
@<TRIPOS>MOLECULE
1775
31 33 1                 
SMALL
USER_CHARGES
@<TRIPOS>ATOM
1	  O1	-0.123	1.045	2.389	O.2	1	PHT0	0.000	
2	  O2	0.090	3.814	-1.244	O.2	1	PHT0	0.000	
3	  N1	0.050	1.487	-1.051	N.pl3	1	PHT0	0.000	
4	  N2	-0.000	2.713	0.798	N.pl3	1	PHT0	0.000	
5	  C1	0.004	0.465	-0.005	C.3	1	PHT0	0.000	
6	  C2	-1.280	-0.375	-0.030	C.2	1	PHT0	0.000	
7	  C3	1.278	-0.379	-0.109	C.2	1	PHT0	0.000	
8	  C4	-0.045	1.407	1.221	C.2	1	PHT0	0.000	
9	  C5	0.052	2.794	-0.570	C.2	1	PHT0	0.000	
10	  C6	-1.501	-1.340	0.952	C.2	1	PHT0	0.000	
11	  C7	1.496	-1.188	-1.227	C.2	1	PHT0	0.000	
12	  C8	-2.226	-0.173	-1.035	C.2	1	PHT0	0.000	
13	  C9	2.230	-0.344	0.914	C.2	1	PHT0	0.000	
14	 C10	-2.668	-2.103	0.930	C.2	1	PHT0	0.000	
15	 C11	2.657	-1.956	-1.322	C.2	1	PHT0	0.000	
16	 C12	-3.393	-0.936	-1.058	C.2	1	PHT0	0.000	
17	 C13	3.390	-1.112	0.819	C.2	1	PHT0	0.000	
18	 C14	-3.614	-1.901	-0.075	C.2	1	PHT0	0.000	
19	 C15	3.604	-1.918	-0.299	C.2	1	PHT0	0.000	
20	  H1	0.094	1.272	-2.043	 H	1	PHT0	0.000	
21	  H2	-0.018	3.514	1.418	 H	1	PHT0	0.000	
22	  H3	-0.775	-1.517	1.741	 H	1	PHT0	0.000	
23	  H4	0.771	-1.229	-2.036	 H	1	PHT0	0.000	
24	  H5	-2.094	0.566	-1.819	 H	1	PHT0	0.000	
25	  H6	2.120	0.273	1.799	 H	1	PHT0	0.000	
26	  H7	-2.839	-2.856	1.694	 H	1	PHT0	0.000	
27	  H8	2.823	-2.583	-2.193	 H	1	PHT0	0.000	
28	  H9	-4.130	-0.780	-1.840	 H	1	PHT0	0.000	
29	 H10	4.129	-1.081	1.615	 H	1	PHT0	0.000	
30	 H11	-4.522	-2.496	-0.093	 H	1	PHT0	0.000	
31	 H12	4.508	-2.515	-0.373	 H	1	PHT0	0.000	
@<TRIPOS>BOND
1 1 8 2
2 2 9 2
3 3 5 1
4 3 9 1
5 3 20 1
6 4 8 1
7 4 9 1
8 4 21 1
9 5 6 1
10 5 7 1
11 5 8 1
12 6 10 2
13 6 12 1
14 7 11 2
15 7 13 1
16 10 14 1
17 10 22 1
18 11 15 1
19 11 23 1
20 12 16 2
21 12 24 1
22 13 17 2
23 13 25 1
24 14 18 2
25 14 26 1
26 15 19 2
27 15 27 1
28 16 18 1
29 16 28 1
30 17 19 1
31 17 29 1
32 18 30 1
33 19 31 1
@<TRIPOS>SUBSTRUCTURE
1	PHT0	1	GROUP	1 ****	PHT
